LTspice 24.0.12 for Windows
Circuit: * C:\Chengming_Li\GitHub\ECE266_CMOSCircuitLab\Lab5_PCB\LTspice\Draft1.asc
Start Time: Sat Oct 12 16:56:18 2024
solver = Normal
Maximum thread count: 8
tnom = 27
temp = 27
method = modified trap
.OP point found by inspection.
Total elapsed time: 0.037 seconds.

