LTspice 24.0.12 for Windows
Circuit: * C:\Users\steve\OneDrive\Documents\GitHub\ECE266_CMOSCircuitLab\Lab5_PCB\LTspice\Draft1.asc
Start Time: Sun Dec  8 15:38:28 2024
solver = Normal
Maximum thread count: 16
tnom = 27
temp = 27
method = modified trap
WARNING: Node N003 is floating.
WARNING: Node N006 is floating.

Direct Newton iteration for .op point succeeded.
Total elapsed time: 0.192 seconds.

