LTspice 24.0.12 for Windows
Circuit: * C:\Users\steve\OneDrive\Documents\GitHub\ECE266_CMOSCircuitLab\Lab5_PCB\LTspice\Draft1.asc
Start Time: Sun Nov 24 09:15:35 2024
solver = Normal
Maximum thread count: 16
tnom = 27
temp = 27
method = modified trap
.OP point found by inspection.
Total elapsed time: 0.052 seconds.

