LTspice 24.0.12 for Windows
Circuit: * C:\Chengming_Li\GitHub\ECE266_CMOSCircuitLab\Lab4\Report\SE_DE.asc
Start Time: Wed Oct  9 15:34:29 2024
solver = Normal
Maximum thread count: 8
tnom = 27
temp = 27
method = modified trap
WARNING: Node N003 is floating.

WARNING: Less than two connections to node -vsupply.  This node is used by v3.
WARNING: Less than two connections to node n001.  This node is used by r1.
WARNING: Less than two connections to node n003.  This node is used by r5.
Direct Newton iteration for .op point succeeded.
Heightened Def Con from 7.64639e-08 ++++++to 7.64639e-08
Heightened Def Con from 4.24743e-07 to 4.24743e-07
Heightened Def Con from 4.24743e-07 to 4.24744e-07
Heightened Def Con from 8.76464e-07 +++++to 8.76464e-07
Heightened Def Con from 1.22474e-06 +++to 1.22474e-06
Heightened Def Con from 1.22474e-06 +++++to 1.22474e-06
Heightened Def Con from 1.22474e-06 to 1.22474e-06
Heightened Def Con from 1.22474e-06 to 1.22474e-06
Heightened Def Con from 1.27646e-06 ++to 1.27646e-06
Heightened Def Con from 1.62474e-06 +++to 1.62474e-06
Heightened Def Con from 1.62474e-06 to 1.62474e-06
Heightened Def Con from 2.07646e-06 to 2.07759e-06
Heightened Def Con from 2.22474e-06 +++to 2.22474e-06
Heightened Def Con from 2.22474e-06 +++++to 2.22474e-06
Heightened Def Con from 2.27646e-06 +to 2.27646e-06
Heightened Def Con from 2.62474e-06 to 2.62474e-06
Heightened Def Con from 2.62474e-06 to 2.62474e-06
Heightened Def Con from 3.07646e-06 +to 3.07646e-06
Heightened Def Con from 3.42474e-06 +++to 3.42474e-06
Heightened Def Con from 3.42474e-06 +++++to 3.42474e-06
Heightened Def Con from 3.47646e-06 to 3.47646e-06
Heightened Def Con from 3.47646e-06 to 3.47646e-06
Heightened Def Con from 4.27646e-06 to 4.27646e-06
Heightened Def Con from 4.62474e-06 +++to 4.62474e-06
Heightened Def Con from 4.62474e-06 to 4.62474e-06
Total elapsed time: 0.160 seconds.

